Version 4.1
SHEET 1 880 680
WIRE 208 -224 80 -224
WIRE 208 -128 208 -224
WIRE 464 -48 208 -48
WIRE 80 0 80 -224
WIRE 336 0 80 0
WIRE 80 80 80 0
WIRE 208 80 80 80
WIRE 336 96 336 0
WIRE -288 144 -416 144
WIRE 176 192 64 192
WIRE 208 192 208 160
WIRE 208 192 176 192
WIRE -416 224 -416 144
WIRE 64 224 64 192
WIRE 176 240 176 192
WIRE 336 240 336 160
WIRE 336 240 176 240
WIRE -288 304 -288 144
WIRE 16 304 -288 304
WIRE 64 432 64 320
WIRE 224 432 64 432
WIRE 464 432 464 -48
WIRE 464 432 224 432
WIRE 224 464 224 432
FLAG 224 464 0
FLAG -416 304 0
SYMBOL ind 192 64 R0
SYMATTR InstName L1
SYMATTR Value 100mL
SYMBOL nmos 16 224 R0
SYMATTR InstName M1
SYMATTR Value IRFZ44N
SYMBOL diode 320 96 R0
SYMATTR InstName D1
SYMBOL voltage 208 -144 R0
WINDOW 123 0 0 Left 0
WINDOW 39 0 0 Left 0
SYMATTR InstName V1
SYMATTR Value 12V
SYMBOL voltage -416 208 R0
WINDOW 123 0 0 Left 0
WINDOW 39 0 0 Left 0
SYMATTR InstName V2
SYMATTR Value PULSE(0 3.3 0.5 0.01 0.01 0.5 1 10)
TEXT -64 488 Left 2 !.tran 0 1 0 4
TEXT -552 304 Left 2 ;GPIO PIN
TEXT 88 144 Left 2 ;SOLENOID
TEXT 360 176 Left 2 ;FLY BACK DIODE
TEXT 256 -88 Left 2 ;POWER SUPPLY
TEXT 80 320 Left 2 ;NMOS
TEXT 248 456 Left 2 ;GND
